scripts/data/matpower/ERO/ero_base.m
%% MATPOWER Case Format : Version 2
function mpc = ero_base
mpc.version = '2';

%%-----  Power Flow Data  -----%%
%% system MVA base
mpc.baseMVA = 100.0;
%% bus data
%    bus_i    type    Pd    Qd    Gs    Bs    area    Vm    Va    baseKV    zone    Vmax    Vmin
mpc.bus = [
	6800	3	0.0	0.0	0.0	0.0	452	1.0	-12.000000000000002	230.0	1	1.05	0.95				
	6801	1	0.0	0.0	0.0	0.0	460	1.05	-14.999999999999998	69.0	1	1.05	0.95				
	6802	1	36.699999999999996	11.3	0.0	0.0	460	0.996	-17.0	69.0	1	1.05	0.95				
	6803	1	0.0	0.0	0.0	0.0	452	0.984	-14.999999999999998	991.0	1	1.9	0.4				
	6804	1	0.0	0.0	0.0	0.0	452	0.984	-14.999999999999998	991.0	1	1.9	0.4				
	6805	1	0.0	0.0	0.0	0.0	452	0.987	-0.7	991.0	1	1.9	0.4				
	6806	1	0.0	0.0	0.0	0.0	452	0.984	-14.999999999999998	13.8	1	1.9	0.4				
	6807	1	0.0	0.0	0.0	0.0	452	0.984	-14.999999999999998	13.8	1	1.9	0.4				
	6811	1	13.799999999999999	2.3000000000000003	0.0	0.0	460	0.978	-21.0	69.0	1	1.05	0.95				
	6812	1	-7.000000000000001	-0.1	0.0	0.0	460	1.078	-13.0	69.0	1	1.05	0.95				
	6813	1	0.0	0.0	0.0	0.0	455	1.002	-6.3	69.0	1	1.05	0.95				
	6816	1	0.0	0.0	0.0	0.0	452	0.987	-0.7	13.8	1	1.9	0.4				
	6817	1	24.0	7.000000000000001	0.0	0.0	455	1.0	-8.7	13.8	1	1.05	0.95				
	6820	3	0.0	0.0	0.0	0.0	452	1.0	-12.000000000000002	230.0	1	1.05	0.95				
	6821	1	0.0	0.0	0.0	0.0	459	1.05	-11.0	138.0	1	1.05	0.95				
	6822	1	27.399999999999995	15.599999999999998	0.0	0.0	459	1.039	-11.0	138.0	1	1.05	0.95				
	6823	1	0.0	0.0	0.0	0.0	452	0.969	-11.0	991.0	1	1.9	0.4				
	6824	1	0.0	0.0	0.0	0.0	452	0.969	-11.0	991.0	1	1.9	0.4				
	6826	1	0.0	0.0	0.0	0.0	452	0.969	-11.0	13.8	1	1.9	0.4				
	6827	1	0.0	0.0	0.0	0.0	452	0.969	-11.0	13.8	1	1.9	0.4				
	6829	1	0.0	0.0	0.0	0.0	459	1.0	-5.8	138.0	1	1.05	0.95				
	6831	2	0.0	0.0	0.0	0.0	459	1.0	0.612	992.0	1	1.05	0.95				
	6832	2	0.0	0.0	0.0	0.0	459	1.0	-5.8	992.0	1	1.05	0.95				
	6833	1	0.0	0.0	0.0	0.0	459	1.022	-5.8	991.0	1	1.9	0.4				
	6839	1	11.5	4.6	0.0	0.0	458	0.998	-18.0	138.0	1	1.05	0.95				
	6840	3	0.0	0.0	0.0	0.0	452	1.0	-12.000000000000002	230.0	1	1.05	0.95				
	6841	1	0.0	0.0	0.0	0.0	458	1.05	-14.999999999999998	138.0	1	1.05	0.95				
	6842	1	43.6	17.3	0.0	0.0	458	1.05	-14.999999999999998	69.0	1	1.05	0.95				
	6843	1	57.9	17.0	0.0	0.0	458	1.034	-16.0	69.0	1	1.05	0.95				
	6844	1	0.0	0.0	0.0	0.0	452	1.054	-14.999999999999998	991.0	1	1.9	0.4				
	6845	1	0.0	0.0	0.0	0.0	452	1.054	-14.999999999999998	991.0	1	1.9	0.4				
	6846	1	0.0	0.0	0.0	0.0	452	0.977	-14.999999999999998	991.0	1	1.9	0.4				
	6847	1	0.0	0.0	0.0	0.0	452	0.977	-14.999999999999998	991.0	1	1.9	0.4				
	6848	1	0.0	0.0	0.0	0.0	452	1.049	-16.0	991.0	1	1.9	0.4				
	6849	1	0.0	0.0	0.0	0.0	452	1.054	-14.999999999999998	13.8	1	1.9	0.4				
	6851	1	0.0	0.0	0.0	0.0	452	1.054	-14.999999999999998	13.8	1	1.9	0.4				
	6852	1	0.0	0.0	0.0	0.0	452	0.977	-14.999999999999998	13.8	1	1.9	0.4				
	6853	1	0.0	0.0	0.0	0.0	452	0.977	-14.999999999999998	13.8	1	1.9	0.4				
	6854	1	0.0	0.0	0.0	0.0	452	1.049	-16.0	13.8	1	1.9	0.4				
	6856	1	44.3	15.8	0.0	0.0	458	0.957	-21.0	138.0	1	1.05	0.95				
	6857	1	0.0	0.0	0.0	0.0	458	0.907	-23.0	138.0	1	1.05	0.95				
	6858	1	8.5	2.4	0.0	0.0	458	0.914	-36.0	69.0	1	1.05	0.95				
	6859	1	30.8	8.8	0.0	0.0	458	1.0	-31.0	13.8	1	1.05	0.95				
	6860	1	5.4	3.2	0.0	0.0	454	0.973	-1.7	13.8	1	1.05	0.95				
	6861	1	15.200000000000003	5.0	0.0	0.0	458	0.917	-35.0	34.5	1	1.05	0.95				
	6862	3	0.0	0.0	0.0	0.0	452	1.0	0.843	230.0	1	1.05	0.95				
	6863	1	0.0	0.0	0.0	0.0	454	0.986	-0.42000000000000004	69.0	1	1.05	0.95				
	6865	1	0.0	0.0	0.0	0.0	452	1.049	-13.0	991.0	1	1.9	0.4				
	6866	1	0.0	0.0	0.0	0.0	452	1.049	-13.0	13.8	1	1.9	0.4				
	6867	1	0.0	0.0	0.0	0.0	452	0.979	-14.0	991.0	1	1.9	0.4				
	6868	1	0.0	0.0	0.0	0.0	452	0.979	-14.0	13.8	1	1.9	0.4				
	6869	1	17.2	6.800000000000001	0.0	0.0	457	0.982	-13.0	138.0	1	1.05	0.95				
	6870	3	0.0	0.0	0.0	0.0	452	1.0	-11.0	230.0	1	1.05	0.95				
	6871	1	0.0	0.0	0.0	0.0	457	1.05	-13.0	69.0	1	1.05	0.95				
	6872	1	30.7	14.6	0.0	0.0	457	1.042	-13.0	69.0	1	1.05	0.95				
	6873	1	0.0	0.0	0.0	0.0	452	1.05	-13.0	991.0	1	1.9	0.4				
	6874	1	0.0	0.0	0.0	0.0	452	1.049	-13.0	991.0	1	1.9	0.4				
	6875	1	0.0	0.0	0.0	0.0	458	0.938	-31.0	13.8	1	1.05	0.95				
	6876	1	0.0	0.0	0.0	0.0	452	1.05	-13.0	13.8	1	1.9	0.4				
	6877	1	0.0	0.0	0.0	0.0	452	1.049	-13.0	13.8	1	1.9	0.4				
	6878	1	0.0	0.0	0.0	0.0	452	1.05	-9.4	991.0	1	1.9	0.4				
	6879	1	0.0	0.0	0.0	0.0	452	1.05	-9.4	13.8	1	1.9	0.4				
	6880	3	0.0	0.0	0.0	0.0	452	1.0	-7.2	230.0	1	1.05	0.95				
	6881	1	14.3	3.1000000000000005	0.0	0.0	456	1.05	-9.4	69.0	1	1.05	0.95				
	6882	1	52.6	26.1	0.0	0.0	456	1.041	-9.8	69.0	1	1.05	0.95				
	6883	1	0.0	0.0	0.0	0.0	452	1.053	-9.0	991.0	1	1.9	0.4				
	6884	1	0.0	0.0	0.0	0.0	452	1.054	-9.0	991.0	1	1.9	0.4				
	6886	1	0.0	0.0	0.0	0.0	452	1.053	-9.0	13.8	1	1.9	0.4				
	6887	1	0.0	0.0	0.0	0.0	452	1.054	-9.0	13.8	1	1.9	0.4				
	6900	3	0.0	0.0	0.0	0.0	452	1.0	1.65	230.0	1	1.05	0.95				
	6901	1	57.70000000000001	26.0	0.0	0.0	455	1.05	-3.3	69.0	1	1.05	0.95				
	6902	1	0.0	0.0	0.0	0.0	452	0.95	-3.4	991.0	1	1.9	0.4				
	6903	1	0.0	0.0	0.0	0.0	452	0.949	-3.5	991.0	1	1.9	0.4				
	6904	1	0.0	0.0	0.0	0.0	452	0.95	-3.4	991.0	1	1.9	0.4				
	6905	1	0.0	0.0	0.0	0.0	452	0.948	-3.6	991.0	1	1.9	0.4				
	6906	1	0.0	0.0	0.0	0.0	452	0.95	-3.4	13.8	1	1.9	0.4				
	6907	1	0.0	0.0	0.0	0.0	452	0.949	-3.5	13.8	1	1.9	0.4				
	6908	1	0.0	0.0	0.0	0.0	452	0.95	-3.4	13.8	1	1.9	0.4				
	6909	1	0.0	0.0	0.0	0.0	455	1.0	-3.3	13.8	1	1.05	0.95				
	6910	1	0.0	0.0	0.0	0.0	452	0.948	-3.6	13.8	1	1.9	0.4				
	6914	1	0.0	0.0	0.0	0.0	455	1.005	-6.000000000000001	69.0	1	1.05	0.95				
	6915	1	66.9	16.2	0.0	0.0	455	1.0	-14.999999999999998	13.8	1	1.05	0.95				
	6916	1	5.2	2.1	0.0	0.0	455	1.0	-7.9	34.5	1	1.05	0.95				
	6917	1	0.0	0.0	0.0	0.0	455	1.026	-4.2	69.0	1	1.05	0.95				
	6918	1	51.800000000000004	18.7	0.0	0.0	455	1.0	-11.0	13.8	1	1.05	0.95				
	6919	1	0.0	0.0	0.0	0.0	455	1.012	-4.7	69.0	1	1.05	0.95				
	6921	1	0.0	0.0	0.0	0.0	455	1.012	-4.7	69.0	1	1.05	0.95				
	6922	1	0.0	0.0	0.0	0.0	455	1.012	-4.7	69.0	1	1.05	0.95				
	6923	1	58.70000000000001	21.2	0.0	0.0	455	1.0	-12.000000000000002	13.8	1	1.05	0.95				
	6924	1	20.7	7.5	0.0	0.0	455	1.021	-3.6	69.0	1	1.05	0.95				
	6930	3	0.0	0.0	0.0	0.0	452	1.0	0.547	230.0	1	1.05	0.95				
	6931	1	0.0	0.0	0.0	0.0	453	1.05	-0.34	138.0	1	1.05	0.95				
	6932	1	0.0	0.0	0.0	0.0	452	1.002	-0.41	991.0	1	1.9	0.4				
	6933	1	0.0	0.0	0.0	0.0	452	1.002	-0.43	991.0	1	1.9	0.4				
	6935	1	0.0	0.0	0.0	0.0	453	1.001	-0.63	13.8	1	1.9	0.4				
	6936	1	0.0	0.0	0.0	0.0	452	1.002	-0.43	13.8	1	1.9	0.4				
	6937	1	1.4	0.5	0.0	0.0	453	1.05	-1.8	34.5	1	1.05	0.95				
	6939	1	0.0	0.0	0.0	0.0	453	1.023	-3.9	138.0	1	1.05	0.95				
	6941	1	13.200000000000001	0.6	0.0	0.0	453	1.0	-9.8	13.8	1	1.05	0.95				
	6942	1	7.1	0.4	0.0	0.0	453	1.0	-16.0	34.5	1	1.05	0.95				
	7046	1	0.0	0.0	0.0	0.0	455	0.998	1.29	13.8	1	1.05	0.95				
	7047	1	0.0	0.0	0.0	0.0	452	0.987	-0.7	991.0	1	1.9	0.4				
	7048	1	0.0	0.0	0.0	0.0	452	0.987	-0.7	13.8	1	1.9	0.4				
	7049	1	0.0	0.0	0.0	0.0	455	1.05	-0.65	69.0	1	1.05	0.95				
	7054	1	0.0	0.0	0.0	0.0	452	0.998	1.29	230.0	1	1.05	0.95				
	7566	4	0.0	0.0	0.0	0.0	451	1.0	0.0	991.0	1	1.9	0.4				
];

%% generator data
%    bus    Pg    Qg    Qmax    Qmin    Vg    mBase    status    Pmax    Pmin    Pc1    Pc2    Qc1min    Qc1max    Qc2min    Qc2max    ramp_agc    ramp_10    ramp_30    ramp_q    apf
mpc.gen = [
	6831	47.0	-23.8	23.8	-23.8	1.0	100.0	1	99999.0	0.0															
	6840	219.1	101.4	999.0	-999.0	1.0	100.0	1	99999.0	0.0															
	6862	5.4	3.534	999.0	-999.0	1.0	100.0	1	99999.0	0.0															
	6900	289.1	161.6	999.0	-999.0	1.0	100.0	1	99999.0	0.0															
	6881	0.1	1.3	0.0	0.0	1.05	100.0	0	99999.0	0.0															
	6820	-17.4	47.87	999.0	-999.0	1.0	100.0	1	99999.0	0.0															
	6858	7.000000000000001	2.1	0.0	0.0	0.914	100.0	0	99999.0	0.0															
	6880	67.17	32.95	999.0	-999.0	1.0	100.0	1	99999.0	0.0															
	6870	48.08	23.86	999.0	-999.0	1.0	100.0	1	99999.0	0.0															
	6802	3.2	0.7	0.0	0.0	0.996	100.0	0	99999.0	0.0															
	6812	7.000000000000001	0.1	0.0	0.0	1.078	100.0	0	99999.0	0.0															
	6822	6.5	1.3	0.0	0.0	1.039	100.0	0	99999.0	0.0															
	6811	7.1	2.6	0.0	0.0	0.978	100.0	0	99999.0	0.0															
	6930	22.23	-2.91	999.0	-999.0	1.0	100.0	1	99999.0	0.0															
	6800	45.95	16.67	999.0	-999.0	1.0	100.0	1	99999.0	0.0															
	6861	5.6	1.0	0.0	0.0	0.917	100.0	0	99999.0	0.0															
	6832	0.0	0.0	0.0	0.0	1.0	100.0	1	99999.0	0.0															
];

%% branch data
%    f_bus    t_bus    r    x    b    rateA    rateB    rateC    ratio    angle    status    angmin    angmax
mpc.branch = [
	6921	6922	0.0	0.0001	0.0	64.0	70.0	64.0	0	0	1	-59.99999999999999	59.99999999999999								
	6924	6919	0.04638	0.1517	0.0027029999999999997	69.0	69.0	69.0	0	0	1	-59.99999999999999	59.99999999999999								
	6841	6856	0.11144	0.27299	0.070022	98.0	122.0	122.0	0	0	1	-59.99999999999999	59.99999999999999								
	6931	6939	0.13397	0.32694	0.08350400000000001	97.0	122.0	97.0	0	0	1	-59.99999999999999	59.99999999999999								
	6914	6813	0.0058709999999999995	0.0192	0.000342	61.0	76.0	76.0	0	0	1	-59.99999999999999	59.99999999999999								
	6914	6901	0.0364	0.1191	0.002121	69.0	69.0	69.0	0	0	1	-59.99999999999999	59.99999999999999								
	6839	6857	0.056494	0.19013000000000002	0.051510999999999994	122.0	153.0	153.0	0	0	1	-59.99999999999999	59.99999999999999								
	6842	6843	0.0341	0.078	0.001539	51.0	63.0	51.0	0	0	1	-59.99999999999999	59.99999999999999								
	6914	6901	0.0364	0.1191	0.002121	69.0	69.0	69.0	0	0	1	-59.99999999999999	59.99999999999999								
	6917	6919	0.024659	0.08064600000000001	0.0014369	55.00000000000001	70.0	55.00000000000001	0	0	1	-59.99999999999999	59.99999999999999								
	6859	6875	0.0622	0.1069	5.999999999999999e-6	10.0	12.0	12.0	0	0	1	-59.99999999999999	59.99999999999999								
	6812	6801	0.39880000000000004	0.5093	0.009181	33.0	41.0	33.0	0	0	1	-59.99999999999999	59.99999999999999								
	6801	6811	0.3713	0.8484	0.016735	51.0	63.0	51.0	0	0	1	-59.99999999999999	59.99999999999999								
	6901	6917	0.01614	0.0528	0.001	61.0	76.0	61.0	0	0	1	-59.99999999999999	59.99999999999999								
	6919	6922	0.0	0.0001	0.0	64.0	70.0	64.0	0	0	1	-59.99999999999999	59.99999999999999								
	7049	6924	0.057800000000000004	0.2455	0.00459	74.0	92.0	92.0	0	0	1	-59.99999999999999	59.99999999999999								
	7049	6924	0.057800000000000004	0.2455	0.00459	74.0	92.0	92.0	0	0	1	-59.99999999999999	59.99999999999999								
	6924	6921	0.04638	0.1517	0.0027029999999999997	69.0	69.0	69.0	0	0	1	-59.99999999999999	59.99999999999999								
	6881	6882	0.0085	0.0195	0.000385	51.0	63.0	51.0	0	0	1	-59.99999999999999	59.99999999999999								
	6871	6872	0.0128	0.029300000000000003	0.000577	51.0	63.0	51.0	0	0	1	-59.99999999999999	59.99999999999999								
	6842	6843	0.0341	0.078	0.001539	51.0	63.0	51.0	0	0	1	-59.99999999999999	59.99999999999999								
	6821	6822	0.00851	0.028593	0.007729000000000001	122.0	153.0	153.0	0	0	1	-59.99999999999999	59.99999999999999								
	6917	6921	0.024659	0.08064600000000001	0.0014369	55.00000000000001	70.0	55.00000000000001	0	0	1	-59.99999999999999	59.99999999999999								
	6901	6917	0.01614	0.0528	0.001	61.0	76.0	61.0	0	0	1	-59.99999999999999	59.99999999999999								
	7054	6900	0.00154	0.01316	0.061	450.0	760.0	760.0	0	0	1	-59.99999999999999	59.99999999999999								
	6822	6829	0.0689	0.1595	0.042657999999999995	101.0	127.0	101.0	0	0	1	-59.99999999999999	59.99999999999999								
	6841	6839	0.028041999999999997	0.09425	0.02549	122.0	153.0	153.0	0	0	1	-59.99999999999999	59.99999999999999								
	6801	6802	0.10369999999999999	0.1324	0.002387	33.0	41.0	33.0	0	0	1	-59.99999999999999	59.99999999999999								
	6841	6847	0.0	-0.00615	0.0	100.0	105.0	120.0	1.073	-0.0	1	-59.99999999999999	59.99999999999999								
	6840	6848	0.0	0.19725	0.0	60.0	64.0	72.0	0.9314	-0.0	1	-59.99999999999999	59.99999999999999								
	6800	6803	0.0	0.20192	0.0	60.0	63.0	72.0	1.0	-0.0	1	-59.99999999999999	59.99999999999999								
	6869	6867	0.0028000000000000004	-0.0438	0.0	50.0	60.0	50.0	1.0	-0.0	1	-59.99999999999999	59.99999999999999								
	6900	6905	0.0	0.14575	0.0	100.0	105.0	120.0	1.0	-0.0	1	-59.99999999999999	59.99999999999999								
	6901	6904	0.0	-0.0023599999999999997	0.0	100.0	105.0	120.0	1.1	-0.0	1	-59.99999999999999	59.99999999999999								
	6918	6917	0.0	0.6968000000000001	0.0	26.0	26.0	26.0	1.023	-0.0	1	-59.99999999999999	59.99999999999999								
	6800	6804	0.0	0.20033	0.0	60.0	63.0	72.0	1.0	-0.0	1	-59.99999999999999	59.99999999999999								
	6887	6884	0.0	0.56189	0.0	20.0	20.0	20.0	1.0	-0.0	1	-59.99999999999999	59.99999999999999								
	6852	6846	0.0	0.15145	0.0	33.0	33.0	33.0	1.0	-0.0	1	-59.99999999999999	59.99999999999999								
	6879	6878	0.0	0.37717	0.0	20.0	20.0	20.0	1.0	-0.0	1	-59.99999999999999	59.99999999999999								
	6863	6860	0.0	0.4	0.0	15.0	20.0	20.0	1.0	-0.0	1	-59.99999999999999	59.99999999999999								
	6868	6867	0.0472	0.5826	0.0	18.0	18.0	18.0	1.0	-0.0	1	-59.99999999999999	59.99999999999999								
	6923	6922	0.0	0.6547	0.0	26.0	26.0	26.0	1.048	-0.0	1	-59.99999999999999	59.99999999999999								
	6941	6939	0.0	0.52331	0.0	26.0	26.0	26.0	0.9917	-0.0	1	-59.99999999999999	59.99999999999999								
	6840	6846	0.0	0.08305	0.0	100.0	105.0	120.0	1.0	-0.0	1	-59.99999999999999	59.99999999999999								
	6900	6902	0.00251	0.14005	0.0	100.0	105.0	120.0	1.0	-0.0	1	-59.99999999999999	59.99999999999999								
	6853	6847	0.0	0.14676999999999998	0.0	33.0	33.0	33.0	1.0	-0.0	1	-59.99999999999999	59.99999999999999								
	6840	6847	0.0	0.08025	0.0	100.0	105.0	120.0	1.0	-0.0	1	-59.99999999999999	59.99999999999999								
	6862	6863	0.0	0.402	0.0	33.0	33.0	33.0	1.0	-0.0	1	-59.99999999999999	59.99999999999999								
	6866	6865	0.0	0.40082999999999996	0.0	10.0	10.0	10.0	1.0	-0.0	1	-59.99999999999999	59.99999999999999								
	6930	6932	0.0	0.1519	0.0	55.00000000000001	55.00000000000001	55.00000000000001	1.0	-0.0	1	-59.99999999999999	59.99999999999999								
	6876	6873	-0.00751	0.23369	0.0	10.0	10.0	10.0	1.0	-0.0	1	-59.99999999999999	59.99999999999999								
	7046	7054	0.03107	1.011	0.0	0.0	0.0	0.0	1.0	-0.0	1	-59.99999999999999	59.99999999999999								
	6909	6901	0.0	0.6406000000000001	0.0	26.0	26.0	26.0	0.956	-0.0	1	-59.99999999999999	59.99999999999999								
	6840	6845	0.0	0.16149999999999998	0.0	60.0	64.0	72.0	0.9314	-0.0	1	-59.99999999999999	59.99999999999999								
	6813	6817	0.0	0.359	0.0	20.0	26.0	26.0	0.9887	-0.0	1	-59.99999999999999	59.99999999999999								
	6941	6942	0.0	1.4780000000000002	0.0	7.000000000000001	716.0	7.000000000000001	0.9888	-0.0	1	-59.99999999999999	59.99999999999999								
	6900	6904	0.0	0.1404	0.0	100.0	105.0	120.0	1.0	-0.0	1	-59.99999999999999	59.99999999999999								
	6908	6904	0.0	0.09411	0.0	33.0	33.0	33.0	1.0	-0.0	1	-59.99999999999999	59.99999999999999								
	6936	6933	0.0	0.27727	0.0	18.0	18.0	18.0	1.0	-0.0	1	-59.99999999999999	59.99999999999999								
	6870	6874	0.00752	0.39285	0.0	30.0	32.0	36.0	0.9351	-0.0	1	-59.99999999999999	59.99999999999999								
	6840	6844	0.0	0.16149999999999998	0.0	60.0	64.0	72.0	0.9314	-0.0	1	-59.99999999999999	59.99999999999999								
	6931	6933	0.0	-0.01282	0.0	55.00000000000001	55.00000000000001	55.00000000000001	1.048	-0.0	1	-59.99999999999999	59.99999999999999								
	6833	6832	0.0	0.3333	0.0	20.0	24.0	20.0	1.0	-0.0	1	-59.99999999999999	59.99999999999999								
	6861	6859	0.0	0.9695999999999999	0.0	0.0	0.0	0.0	1.0	-0.0	1	-59.99999999999999	59.99999999999999								
	6871	6865	0.0	-0.0225	0.0	30.0	36.0	42.0	1.0	-0.0	1	-59.99999999999999	59.99999999999999								
	6801	6804	0.0	-0.00867	0.0	60.0	63.0	72.0	1.066	-0.0	1	-59.99999999999999	59.99999999999999								
	6841	6846	0.0	-0.00645	0.0	100.0	105.0	120.0	1.073	-0.0	1	-59.99999999999999	59.99999999999999								
	6909	6901	0.0	0.6376	0.0	26.0	26.0	26.0	0.956	-0.0	1	-59.99999999999999	59.99999999999999								
	6871	6874	0.0	-0.01633	0.0	30.0	32.0	36.0	1.0	-0.0	1	-59.99999999999999	59.99999999999999								
	6854	6848	0.0	0.11842000000000001	0.0	20.0	20.0	20.0	1.0	-0.0	1	-59.99999999999999	59.99999999999999								
	7048	7047	-0.00251	0.09455	0.0	33.0	33.0	33.0	1.0	-0.0	1	-59.99999999999999	59.99999999999999								
	6909	6901	0.0	0.6515000000000001	0.0	26.0	26.0	26.0	0.956	-0.0	1	-59.99999999999999	59.99999999999999								
	6849	6844	0.0	0.564	0.0	20.0	20.0	20.0	1.0	-0.0	1	-59.99999999999999	59.99999999999999								
	6930	6933	0.0	0.15209	0.0	55.00000000000001	55.00000000000001	55.00000000000001	1.0	-0.0	1	-59.99999999999999	59.99999999999999								
	6858	6875	0.0	0.8	0.0	10.0	12.0	12.0	1.0	-0.0	1	-59.99999999999999	59.99999999999999								
	7054	7047	0.00251	0.14005	0.0	100.0	120.0	100.0	1.0	-0.0	1	-59.99999999999999	59.99999999999999								
	6870	6865	0.0	0.4175	0.0	30.0	36.0	42.0	0.9351	-0.0	1	-59.99999999999999	59.99999999999999								
	6907	6903	0.0	0.09333	0.0	33.0	33.0	33.0	1.0	-0.0	1	-59.99999999999999	59.99999999999999								
	7049	7047	0.00251	-0.00265	0.0	100.0	120.0	100.0	1.065	-0.0	1	-59.99999999999999	59.99999999999999								
	6821	6824	0.0	-0.012199999999999999	0.0	55.00000000000001	57.99999999999999	66.0	1.08	-0.0	1	-59.99999999999999	59.99999999999999								
	6881	6883	0.0	0.03655	0.0	60.0	64.0	72.0	1.0	-0.0	1	-59.99999999999999	59.99999999999999								
	6842	6845	0.0	0.036000000000000004	0.0	60.0	64.0	72.0	1.0	-0.0	1	-59.99999999999999	59.99999999999999								
	6886	6883	0.0	0.56214	0.0	20.0	20.0	20.0	1.0	-0.0	1	-59.99999999999999	59.99999999999999								
	6901	6905	0.0	-0.00915	0.0	100.0	105.0	120.0	1.1	-0.0	1	-59.99999999999999	59.99999999999999								
	6816	6805	-0.00251	0.09455	0.0	33.0	33.0	33.0	1.0	-0.0	1	-59.99999999999999	59.99999999999999								
	6901	6902	0.0	-0.00255	0.0	100.0	105.0	120.0	1.1	-0.0	1	-59.99999999999999	59.99999999999999								
	6827	6824	0.0	0.25607	0.0	18.0	18.0	18.0	1.0	-0.0	1	-59.99999999999999	59.99999999999999								
	6901	6903	0.0	-0.00525	0.0	100.0	105.0	120.0	1.1	-0.0	1	-59.99999999999999	59.99999999999999								
	6915	6914	0.0	0.6422	0.0	26.0	32.0	26.0	1.045	-0.0	1	-59.99999999999999	59.99999999999999								
	6931	6932	0.0	-0.01209	0.0	55.00000000000001	55.00000000000001	55.00000000000001	1.048	-0.0	1	-59.99999999999999	59.99999999999999								
	6820	6824	0.0	0.13016	0.0	55.00000000000001	57.99999999999999	66.0	1.0	-0.0	1	-59.99999999999999	59.99999999999999								
	7054	6805	0.00251	0.14005	0.0	100.0	120.0	100.0	1.0	-0.0	1	-59.99999999999999	59.99999999999999								
	6806	6803	0.0	0.57558	0.0	20.0	20.0	20.0	1.0	-0.0	1	-59.99999999999999	59.99999999999999								
	6915	6914	0.0	0.655	0.0	26.0	32.0	26.0	1.045	-0.0	1	-59.99999999999999	59.99999999999999								
	6870	6873	0.00752	0.39301	0.0	30.0	32.0	36.0	0.9351	-0.0	1	-59.99999999999999	59.99999999999999								
	7049	6805	0.00251	-0.00265	0.0	100.0	120.0	100.0	1.065	-0.0	1	-59.99999999999999	59.99999999999999								
	6807	6804	7.000000000000001e-5	0.56667	0.0	20.0	20.0	20.0	1.0	-0.0	1	-59.99999999999999	59.99999999999999								
	6877	6874	-0.00751	0.23415	0.0	10.0	10.0	10.0	1.0	-0.0	1	-59.99999999999999	59.99999999999999								
	6826	6823	0.0	0.25513	0.0	18.0	18.0	18.0	1.0	-0.0	1	-59.99999999999999	59.99999999999999								
	6910	6905	0.0	0.10064999999999999	0.0	33.0	33.0	33.0	1.0	-0.0	1	-59.99999999999999	59.99999999999999								
	6923	6922	0.0	0.6548999999999999	0.0	26.0	26.0	26.0	1.048	-0.0	1	-59.99999999999999	59.99999999999999								
	6918	6917	0.0	0.6402	0.0	26.0	26.0	26.0	1.023	-0.0	1	-59.99999999999999	59.99999999999999								
	6881	6878	0.0	-0.00217	0.0	60.0	72.0	84.0	1.0	-0.0	1	-59.99999999999999	59.99999999999999								
	6915	6914	0.0	0.6537999999999999	0.0	26.0	32.0	26.0	1.045	-0.0	1	-59.99999999999999	59.99999999999999								
	6801	6803	0.0	-0.008579999999999999	0.0	60.0	63.0	72.0	1.066	-0.0	1	-59.99999999999999	59.99999999999999								
	7054	7566	0.0	-0.01348	0.0	465.00000000000006	465.00000000000006	465.00000000000006	1.0	-0.0	0	-59.99999999999999	59.99999999999999								
	6831	6829	0.0	0.23257999999999998	0.0	82.0	82.0	55.00000000000001	1.0	-0.0	1	-59.99999999999999	59.99999999999999								
	6813	6817	0.0	0.359	0.0	20.0	26.0	26.0	0.9887	-0.0	1	-59.99999999999999	59.99999999999999								
	6820	6823	0.0	0.12946	0.0	55.00000000000001	57.99999999999999	66.0	1.0	-0.0	1	-59.99999999999999	59.99999999999999								
	6871	6873	0.00752	-0.01823	0.0	30.0	32.0	36.0	1.0	-0.0	1	-59.99999999999999	59.99999999999999								
	6880	6883	0.0	0.15938	0.0	60.0	64.0	72.0	0.9353	-0.0	1	-59.99999999999999	59.99999999999999								
	6923	6922	0.0	0.6503	0.0	26.0	26.0	26.0	1.048	-0.0	1	-59.99999999999999	59.99999999999999								
	6937	6935	0.0	1.4	0.0	6.0	6.0	6.0	1.057	-0.0	1	-59.99999999999999	59.99999999999999								
	6821	6823	0.0	-0.01179	0.0	55.00000000000001	57.99999999999999	66.0	1.08	-0.0	1	-59.99999999999999	59.99999999999999								
	6851	6845	0.0	0.564	0.0	20.0	20.0	20.0	1.0	-0.0	1	-59.99999999999999	59.99999999999999								
	6829	6833	0.0	0.2647	0.0	82.0	82.0	82.0	1.0	-0.0	1	-59.99999999999999	59.99999999999999								
	6842	6848	0.0	-0.00792	0.0	60.0	64.0	72.0	1.0	-0.0	1	-59.99999999999999	59.99999999999999								
	6859	6857	0.0	0.36263	0.0	40.0	40.0	40.0	1.1	-0.0	1	-59.99999999999999	59.99999999999999								
	6881	6884	0.0	0.03714	0.0	60.0	64.0	72.0	1.0	-0.0	1	-59.99999999999999	59.99999999999999								
	6859	6857	0.0	0.36538	0.0	40.0	40.0	40.0	1.1	-0.0	1	-59.99999999999999	59.99999999999999								
	6880	6884	0.0	0.15879	0.0	60.0	64.0	72.0	0.9353	-0.0	1	-59.99999999999999	59.99999999999999								
	6870	6867	0.0014000000000000002	0.287	0.0	50.0	60.0	50.0	1.0	-0.0	1	-59.99999999999999	59.99999999999999								
	6935	6932	0.0	0.27649999999999997	0.0	18.0	18.0	18.0	1.0	-0.0	1	-59.99999999999999	59.99999999999999								
	6842	6844	0.0	0.036000000000000004	0.0	60.0	64.0	72.0	1.0	-0.0	1	-59.99999999999999	59.99999999999999								
	6880	6878	0.0	0.19283	0.0	60.0	72.0	84.0	0.9353	-0.0	1	-59.99999999999999	59.99999999999999								
	6900	6903	0.00251	0.14005	0.0	100.0	105.0	120.0	1.0	-0.0	1	-59.99999999999999	59.99999999999999								
	6914	6916	0.0	0.6386999999999999	0.0	20.0	26.0	26.0	0.9912	-0.0	1	-59.99999999999999	59.99999999999999								
	6906	6902	-0.00251	0.09455	0.0	33.0	33.0	33.0	1.0	-0.0	1	-59.99999999999999	59.99999999999999								
	6861	6859	0.0	0.9695999999999999	0.0	0.0	0.0	0.0	1.0	-0.0	1	-59.99999999999999	59.99999999999999								
	6918	6917	0.0	0.6420999999999999	0.0	26.0	26.0	26.0	1.023	-0.0	1	-59.99999999999999	59.99999999999999								
];

%%-----  OPF Data  -----%%
%% cost data
%    1    startup    shutdown    n    x1    y1    ...    xn    yn
%    2    startup    shutdown    n    c(n-1)    ...    c0
mpc.gencost = [
	2	0.0	0.0	2	1.0	0.0
	2	0.0	0.0	2	1.0	0.0
	2	0.0	0.0	2	1.0	0.0
	2	0.0	0.0	2	1.0	0.0
	2	0.0	0.0	2	1.0	0.0
	2	0.0	0.0	2	1.0	0.0
	2	0.0	0.0	2	1.0	0.0
	2	0.0	0.0	2	1.0	0.0
	2	0.0	0.0	2	1.0	0.0
	2	0.0	0.0	2	1.0	0.0
	2	0.0	0.0	2	1.0	0.0
	2	0.0	0.0	2	1.0	0.0
	2	0.0	0.0	2	1.0	0.0
	2	0.0	0.0	2	1.0	0.0
	2	0.0	0.0	2	1.0	0.0
	2	0.0	0.0	2	1.0	0.0
	2	0.0	0.0	2	1.0	0.0
];

%% bus names
mpc.bus_name = {
	'VILHEN-RO230'
	'VILHEN-RO069'
	'VILHE-PCH069'
	'VILHE1-RO000'
	'VILHE2-RO000'
	'CPVELH-RO000'
	'VILHE1-RO013'
	'VILHE2-RO013'
	'COLOR-PCH069'
	'CACHO-PCH069'
	'CENTRO-RO069'
	'CPVELH-RO013'
	'CENTRO-RO013'
	'P.BUEN-RO230'
	'P.BUEN-RO138'
	'PBUEN2PCH138'
	'PBUE1--RO000'
	'PBUE2--RO000'
	'PBUEN2-RO013'
	'PBUEN1-RO013'
	'RONDO2-RO138'
	'ROND2-UHE002'
	'ROND2-UTE000'
	'RONDN2-RO000'
	'P.MEDI-RO138'
	'JIPARA-RO230'
	'JIPAR1-RO138'
	'JIPAR2-RO069'
	'JIPAR4-RO069'
	'JIPAR1-RO000'
	'JIPAR2-RO000'
	'JIPAA2-RO000'
	'JIPAA1-RO000'
	'JIPAR3-RO000'
	'JIPAR1-RO013'
	'JIPAR2-RO013'
	'JIPAA2-RO013'
	'JIPAA1-RO013'
	'JIPAR3-RO013'
	'CACOAL-RO138'
	'ROLIM--RO138'
	'ROLIM-PCH069'
	'ROLIM1-RO013'
	'NMPARA-RO013'
	'ROLIM-PCH034'
	'NMPARA-RO230'
	'NMPARA-RO069'
	'JARU-3-RO000'
	'JARU-3-RO013'
	'JARU-4-RO000'
	'JARU-4-RO013'
	'JARU1--RO138'
	'JARU---RO230'
	'JARU---RO069'
	'JAR-CE-RO069'
	'JARU-1-RO000'
	'JARU-2-RO000'
	'ROLIM2-RO013'
	'JARU-1-RO013'
	'JARU-2-RO013'
	'ARIQU3-RO000'
	'ARIQU3-RO013'
	'ARIQUI-RO230'
	'ARIQU-PCH069'
	'ARIQU1-RO069'
	'ARIQU1-RO000'
	'ARIQU2-RO000'
	'ARIQU1-RO013'
	'ARIQU2-RO013'
	'P.VELH-RO230'
	'P.VELH-RO069'
	'P.VEL1-RO000'
	'P.VEL2-RO000'
	'P.VEL3-RO000'
	'P.VEL4-RO000'
	'P.VEL1-RO013'
	'P.VEL2-RO013'
	'P.VEL3-RO013'
	'P.VELH-RO013'
	'P.VEL4-RO013'
	'AREAL--RO069'
	'AREAL1-RO013'
	'AREAL--RO034'
	'TIRADE-RO069'
	'TIRADE-RO013'
	'ALFAV1TAP069'
	'ALFAV2TAP069'
	'ALFAVI-RO069'
	'ALFAVI-RO013'
	'RMADEI-RO069'
	'ABUNA--RO230'
	'ABUNA--RO138'
	'ABUNA1-RO000'
	'ABUNA2-RO000'
	'ABUNA1-RO013'
	'ABUNA2-RO013'
	'ABUNA--RO034'
	'G.MIRI-RO138'
	'G.MIRI-RO013'
	'G.MIRI-RO034'
	'C.PVE2-RO013'
	'CPVEL2-RO000'
	'CPVEL2-RO013'
	'CPVELH-RO069'
	'C.PVEL-RO230'
	'C.PVEL-RO000'
};

